FoamFile { format ascii; class uniformDimensionedVectorField; object g; }
dimensions [acceleration];
value (0 0 -9.81);
