FoamFile { format ascii; class dictionary; object phaseProperties; }
phases (water air);
sigma 0.072;
